Version 4
SHEET 1 880 744
WIRE -304 -144 -432 -144
WIRE 112 -144 -304 -144
WIRE -304 -80 -304 -144
WIRE 448 -80 272 -80
WIRE 112 -64 112 -144
WIRE 176 -64 112 -64
WIRE 592 -48 272 -48
WIRE 176 -32 144 -32
WIRE 448 -16 272 -16
WIRE 592 -16 592 -48
WIRE -304 64 -304 0
WIRE 144 96 144 -32
WIRE 272 96 144 96
WIRE 496 96 352 96
WIRE 496 144 496 96
WIRE -304 224 -304 144
WIRE 496 288 496 224
WIRE -304 400 -304 304
WIRE -304 576 -304 480
WIRE -304 704 -304 656
FLAG -304 704 0
FLAG 448 -16 State
FLAG 448 -80 Gate
FLAG -432 -144 Vin
FLAG 496 288 0
FLAG 592 -16 0
SYMBOL voltage -304 -96 R0
WINDOW 123 0 0 Left 0
WINDOW 39 0 0 Left 0
SYMATTR InstName V1
SYMATTR Value PULSE(0 1 0 20n 20n 10u 200u 6)
SYMBOL voltage -304 48 R0
WINDOW 123 0 0 Left 0
WINDOW 39 0 0 Left 0
SYMATTR InstName V2
SYMATTR Value PULSE(0 1 1.5m 20n 20n 10u 100u 13)
SYMBOL voltage -304 208 R0
WINDOW 123 0 0 Left 0
WINDOW 39 0 0 Left 0
SYMATTR InstName V3
SYMATTR Value PULSE(0 1 3m 20n 20n 10u 40u 13)
SYMBOL voltage -304 384 R0
WINDOW 123 0 0 Left 0
WINDOW 39 0 0 Left 0
SYMATTR InstName V4
SYMATTR Value PULSE(0 1 3.7m 20n 20n 10u 15u 13)
SYMBOL voltage -304 560 R0
WINDOW 123 0 0 Left 0
WINDOW 39 0 0 Left 0
SYMATTR InstName V5
SYMATTR Value PULSE(0 1 4m 20n 20n 10u 15u 1)
SYMBOL res 368 80 R90
WINDOW 0 0 56 VBottom 2
WINDOW 3 32 56 VTop 2
SYMATTR InstName Rd
SYMATTR Value 10
SYMBOL voltage 496 128 R0
SYMATTR InstName Vdd
SYMATTR Value 3
SYMBOL MemNeuroTransistor 224 -48 R0
SYMATTR InstName U1
TEXT -456 728 Left 2 !.tran 0 4.2m 0 10n
