Version 4
SHEET 1 1352 680
WIRE -144 -160 -208 -160
WIRE 528 -160 -144 -160
WIRE -208 -128 -208 -160
WIRE -208 -32 -208 -48
WIRE 384 -16 336 -16
WIRE 528 -16 528 -160
WIRE 528 -16 496 -16
WIRE 384 16 336 16
WIRE 528 16 496 16
WIRE -208 64 -208 48
WIRE -208 160 -208 144
WIRE 528 160 528 16
WIRE 528 160 -208 160
WIRE -208 192 -208 160
FLAG -208 192 0
FLAG 336 -16 x
FLAG 336 16 dxdt
FLAG -144 -160 Vin
SYMBOL voltage -208 -144 R0
WINDOW 0 -56 13 Left 2
WINDOW 123 0 0 Left 0
WINDOW 39 0 0 Left 0
SYMATTR InstName V1
SYMATTR Value PULSE(0 -3 10m 10u 10u 10m 22m 100)
SYMBOL voltage -208 -48 R0
WINDOW 0 -58 19 Left 2
WINDOW 123 0 0 Left 0
WINDOW 39 0 0 Left 0
SYMATTR InstName Vread
SYMATTR Value PULSE(0 1 30m 10u 10u 1m 22m 200)
SYMBOL voltage -208 48 R0
WINDOW 0 -57 19 Left 2
WINDOW 123 0 0 Left 0
WINDOW 39 0 0 Left 0
SYMATTR InstName V3
SYMATTR Value PULSE(0 2.7 2210m 10u 10u 10m 22m 100)
SYMBOL MEM_NAMLAB 432 0 R0
SYMATTR InstName U1
TEXT -88 -200 Left 2 !.tran 200
TEXT 128 -200 Left 2 !.param x0=0.192
TEXT -208 216 Left 2 !; Simulation Settings
