Version 4
SHEET 1 1940 960
WIRE 528 -160 -208 -160
WIRE -208 -112 -208 -160
WIRE -208 -32 -208 -112
WIRE 384 -16 336 -16
WIRE 528 -16 528 -160
WIRE 528 -16 496 -16
WIRE 384 32 336 32
WIRE 528 32 496 32
WIRE -208 80 -208 48
WIRE 528 144 528 32
WIRE -208 208 -208 160
WIRE 528 224 528 144
WIRE 512 272 432 272
WIRE 640 272 608 272
WIRE 784 272 720 272
WIRE -208 320 -208 288
WIRE 432 368 432 272
WIRE 560 368 560 272
WIRE 560 368 432 368
WIRE 432 416 432 368
WIRE 784 416 784 352
WIRE -208 448 -208 400
WIRE -208 592 -208 528
FLAG -208 592 0
FLAG 336 -16 x
FLAG 336 32 dxdt
FLAG 784 416 0
FLAG 432 416 0
FLAG -208 -112 Vin
FLAG 528 144 Vg
SYMBOL voltage -208 -48 R0
WINDOW 123 0 0 Left 0
WINDOW 39 0 0 Left 0
SYMATTR InstName V
SYMATTR Value PULSE(0 1.8 0 20n 20n 10u 200u 6)
SYMBOL voltage 784 256 R0
SYMATTR InstName VDD
SYMATTR Value 3
SYMBOL res 736 256 R90
WINDOW 0 0 56 VBottom 2
WINDOW 3 32 56 VTop 2
SYMATTR InstName Rd
SYMATTR Value 10
SYMBOL nmos4 608 224 R90
SYMATTR InstName M1
SYMBOL pseudo_memcapacitor 432 0 R0
SYMATTR InstName X1
SYMBOL voltage -208 64 R0
WINDOW 123 0 0 Left 0
WINDOW 39 0 0 Left 0
SYMATTR InstName V1
SYMATTR Value PULSE(0 1.8 1.5m 20n 20n 10u 100u 13)
SYMBOL voltage -208 192 R0
WINDOW 123 0 0 Left 0
WINDOW 39 0 0 Left 0
SYMATTR InstName V2
SYMATTR Value PULSE(0 1.8 3m 20n 20n 10u 40u 13)
SYMBOL voltage -208 304 R0
WINDOW 123 0 0 Left 0
WINDOW 39 0 0 Left 0
SYMATTR InstName V3
SYMATTR Value PULSE(0 1.8 3.7m 20n 20n 10u 15u 13)
SYMBOL voltage -208 432 R0
WINDOW 123 0 0 Left 0
WINDOW 39 0 0 Left 0
SYMATTR InstName V4
SYMATTR Value PULSE(0 1.8 4m 20n 20n 10u 15u 1)
TEXT -88 -200 Left 2 !.tran 0 4.2m 0 10n
TEXT 280 -208 Left 2 !.param x0=0.1
TEXT 776 -144 Left 2 !.model M1 NMOS(LEVEL=3 L=1u W=4u Vto=0.45 Tox=12n TPG=0 Uo=798 THETA=42m PHI=66)
