Version 4
SHEET 1 880 680
WIRE 224 80 192 80
WIRE 288 80 224 80
WIRE 48 96 -32 96
WIRE 192 96 192 80
WIRE 192 96 160 96
WIRE 48 128 -32 128
WIRE 192 128 160 128
WIRE 192 144 192 128
WIRE 240 144 192 144
WIRE 288 144 240 144
WIRE 240 208 240 144
FLAG -32 96 SV
IOPIN -32 96 BiDir
FLAG -32 128 DSV
IOPIN -32 128 BiDir
FLAG 224 80 TE
IOPIN 224 80 BiDir
FLAG 240 272 BE
IOPIN 240 272 BiDir
SYMBOL cap 272 80 R0
SYMATTR InstName Cp
SYMATTR Value 10p
SYMBOL cap 224 208 R0
SYMATTR InstName Cs
SYMATTR Value 100p
SYMBOL MEM_NAMLAB 96 112 R0
SYMATTR InstName U1
