Version 4
SHEET 1 880 680
WIRE 48 80 -32 80
WIRE 224 80 160 80
WIRE 288 80 224 80
WIRE -32 96 -32 80
WIRE 48 128 -32 128
WIRE 192 128 160 128
WIRE 192 144 192 128
WIRE 240 144 192 144
WIRE 288 144 240 144
WIRE 240 208 240 144
FLAG -32 96 SV
IOPIN -32 96 BiDir
FLAG -32 128 DSV
IOPIN -32 128 BiDir
FLAG 224 80 TE
IOPIN 224 80 BiDir
FLAG 240 208 BE
IOPIN 240 208 BiDir
SYMBOL cap 272 80 R0
SYMATTR InstName Cp
SYMATTR Value 10p
SYMBOL pseudo_memcapacitor 96 96 R0
SYMATTR InstName X1
