Version 4
SHEET 1 3620 3476
WIRE 624 -16 80 -16
WIRE 80 32 80 -16
WIRE 80 144 80 112
WIRE 528 208 80 208
WIRE 80 240 80 208
WIRE 624 256 624 -16
WIRE 704 256 624 256
WIRE 528 304 528 208
WIRE 704 304 528 304
WIRE 944 304 896 304
WIRE 80 352 80 320
WIRE 704 352 624 352
WIRE 624 416 624 352
WIRE 624 416 80 416
WIRE 944 416 944 304
WIRE 944 416 816 416
WIRE 80 448 80 416
WIRE 816 480 816 416
WIRE 80 560 80 528
WIRE 816 720 816 656
WIRE 816 720 624 720
WIRE 624 816 624 720
WIRE 704 816 624 816
WIRE 704 864 80 864
WIRE 1104 864 896 864
WIRE 80 896 80 864
WIRE 1104 896 1104 864
WIRE 704 912 624 912
WIRE 80 1008 80 976
WIRE 624 1088 624 912
WIRE 624 1088 80 1088
WIRE 80 1120 80 1088
WIRE 80 1232 80 1200
FLAG 80 144 0
FLAG 80 -16 Vpulse1
FLAG 80 352 0
FLAG 80 560 0
FLAG 80 208 Vpulse2
FLAG 80 416 Vpulse3
FLAG 80 1008 0
FLAG 80 1232 0
FLAG 80 864 Vpulse5
FLAG 80 1088 Vpulse6
FLAG 624 816 Vpulse4
FLAG 1104 896 0
SYMBOL voltage 80 16 R0
WINDOW 123 0 0 Left 0
WINDOW 39 0 0 Left 0
SYMATTR InstName Vpulse1
SYMATTR Value PULSE(0 1 0 100n 100n 2u 10u)
SYMBOL voltage 80 224 R0
SYMATTR InstName Vpulse2
SYMATTR Value PULSE(0 1 0 100n 100n 2u 10u)
SYMBOL voltage 80 432 R0
SYMATTR InstName Vpulse3
SYMATTR Value PULSE(0 1 0 100n 100n 2u 10u)
SYMBOL voltage 80 880 R0
SYMATTR InstName Vpulse5
SYMATTR Value PULSE(0 1 0 100n 100n 2u 10u)
SYMBOL voltage 80 1104 R0
SYMATTR InstName Vpulse6
SYMATTR Value PULSE(0 1 0 100n 100n 2u 10u)
SYMBOL current_to_voltage 816 560 R90
SYMATTR InstName X3
SYMATTR SpiceModel C2V
SYMBOL neuro_memristor_3x3 800 304 R0
SYMATTR SpiceModel neuro_memristor_3x3
SYMATTR InstName X1
SYMBOL neuro_memristor_3x3 800 864 R0
SYMATTR SpiceModel neuro_memristor_3x3
SYMATTR InstName X2
TEXT 216 680 Left 2 !.tran 0 0.1m 0 500n
