Version 4
SHEET 1 3620 3476
WIRE 624 -16 80 -16
WIRE 80 32 80 -16
WIRE 80 144 80 112
WIRE 528 208 80 208
WIRE 80 240 80 208
WIRE 624 256 624 -16
WIRE 704 256 624 256
WIRE 528 304 528 208
WIRE 704 304 528 304
WIRE 944 304 896 304
WIRE 80 352 80 320
WIRE 704 352 624 352
WIRE 624 416 624 352
WIRE 624 416 80 416
WIRE 944 416 944 304
WIRE 944 416 816 416
WIRE 80 448 80 416
WIRE 816 480 816 416
WIRE 80 560 80 528
WIRE 816 720 816 656
WIRE 816 720 624 720
WIRE 624 816 624 720
WIRE 2256 816 624 816
WIRE 704 864 80 864
WIRE 1104 864 896 864
WIRE 2256 864 2256 816
WIRE 2256 864 2064 864
WIRE 2464 864 2256 864
WIRE 80 896 80 864
WIRE 1104 896 1104 864
WIRE 704 912 624 912
WIRE 2464 976 2464 864
WIRE 80 1008 80 976
WIRE 624 1088 624 912
WIRE 624 1088 80 1088
WIRE 80 1120 80 1088
WIRE 2288 1168 2288 1088
WIRE 2448 1168 2448 1072
WIRE 2448 1168 2288 1168
WIRE 2480 1168 2480 1072
WIRE 2576 1168 2576 752
WIRE 2576 1168 2480 1168
WIRE 80 1232 80 1200
WIRE 2576 1296 2576 1168
WIRE 2304 1392 2176 1392
WIRE 2576 1392 2576 1296
WIRE 2720 1392 2576 1392
WIRE 2576 1424 2576 1392
WIRE 2432 1472 2256 1472
WIRE 2560 1472 2512 1472
WIRE 2848 1472 2656 1472
WIRE 3056 1472 2928 1472
WIRE 2224 1568 2208 1568
WIRE 2304 1568 2304 1456
WIRE 2304 1568 2224 1568
WIRE 2608 1568 2608 1472
WIRE 2608 1568 2304 1568
WIRE 2720 1568 2720 1456
WIRE 2720 1568 2608 1568
WIRE 3056 1632 3056 1552
FLAG 80 144 0
FLAG 80 -16 Vpulse1
FLAG 80 352 0
FLAG 80 560 0
FLAG 80 208 Vpulse2
FLAG 80 416 Vpulse3
FLAG 80 1008 0
FLAG 80 1232 0
FLAG 80 864 Vpulse5
FLAG 80 1088 Vpulse6
FLAG 624 816 Vpulse4
FLAG 1104 896 0
FLAG 3056 1632 0
FLAG 2576 1296 Vg3
FLAG 2448 1168 state33
FLAG 2288 1008 0
FLAG 2224 1568 0
SYMBOL voltage 80 16 R0
WINDOW 123 0 0 Left 0
WINDOW 39 0 0 Left 0
SYMATTR InstName Vpulse1
SYMATTR Value PULSE(0 1 0 100n 100n 2u 10u)
SYMBOL voltage 80 224 R0
SYMATTR InstName Vpulse2
SYMATTR Value PULSE(0 1 0 100n 100n 2u 10u)
SYMBOL voltage 80 432 R0
SYMATTR InstName Vpulse3
SYMATTR Value PULSE(0 1 0 100n 100n 2u 10u)
SYMBOL voltage 80 880 R0
SYMATTR InstName Vpulse5
SYMATTR Value PULSE(0 1 0 100n 100n 2u 10u)
SYMBOL voltage 80 1104 R0
SYMATTR InstName Vpulse6
SYMATTR Value PULSE(0 1 0 100n 100n 2u 10u)
SYMBOL current_to_voltage 816 560 R90
SYMATTR InstName X3
SYMATTR SpiceModel C2V
SYMBOL neuro_memristor_3x3 800 304 R0
SYMATTR SpiceModel neuro_memristor_3x3
SYMATTR InstName X1
SYMBOL voltage 3056 1456 R0
SYMATTR InstName VDD1
SYMATTR Value 3
SYMBOL nmos4 2656 1424 R90
SYMATTR InstName M1
SYMBOL cap 2704 1392 R0
WINDOW 0 31 11 Left 2
WINDOW 3 30 56 Left 2
SYMATTR InstName Cgb1
SYMATTR Value {C3gb}
SYMBOL pseudo_memcapacitor 2464 1024 R90
WINDOW 123 0 68 Top 2
SYMATTR Value2 x0=0.1
SYMATTR InstName U8
SYMBOL nmos4 2256 1424 R90
SYMATTR InstName M2
SYMBOL cap 2288 1392 R0
SYMATTR InstName Cgb2
SYMATTR Value {C2gb}
SYMBOL res 2944 1456 R90
WINDOW 0 0 56 VBottom 2
WINDOW 3 32 56 VTop 2
SYMATTR InstName R1
SYMATTR Value 10
SYMBOL res 2528 1456 R90
WINDOW 0 0 56 VBottom 2
WINDOW 3 32 56 VTop 2
SYMATTR InstName R2
SYMATTR Value 10
SYMBOL res 2272 992 R0
SYMATTR InstName R12
SYMATTR Value 1G
TEXT 216 680 Left 2 !.tran 0 0.1m 0 500n
TEXT 1424 -64 Left 2 !.model M1 NMOS((LEVEL=3 L=26u W=94u Vto=0.2 Tox=22n TPG=0 Uo=798 THETA=42m PHI=66)\n.model M2 NMOS((LEVEL=3 L=26u W=94u Vto=0.2 Tox=22n TPG=0 Uo=798 THETA=42m PHI=66)\n.model M3 NMOS((LEVEL=3 L=26u W=94u Vto=0.2 Tox=22n TPG=0 Uo=798 THETA=42m PHI=66)
TEXT 2856 280 Left 2 !.param C1gb=100p C2gb=100p C3gb=100p
