Version 4
SHEET 1 1352 680
WIRE 384 -160 112 -160
WIRE 624 -160 384 -160
WIRE 384 -128 384 -160
WIRE 624 -48 624 -160
WIRE 112 -16 112 -160
WIRE 384 -16 384 -48
WIRE 496 -16 384 -16
WIRE 384 16 384 -16
WIRE 496 16 496 -16
WIRE 336 64 288 64
WIRE 384 160 384 112
WIRE 496 160 496 96
WIRE 496 160 384 160
WIRE 624 160 624 16
WIRE 624 160 496 160
WIRE 112 208 112 64
WIRE 496 208 496 160
WIRE 496 208 384 208
WIRE 384 240 384 208
WIRE 496 288 496 208
WIRE 384 336 384 304
WIRE 480 336 384 336
WIRE 592 336 576 336
WIRE 704 336 672 336
WIRE 384 432 384 336
WIRE 528 432 528 336
WIRE 528 432 384 432
WIRE 384 464 384 432
WIRE 704 464 704 416
FLAG 288 64 state
FLAG 112 208 0
FLAG 704 464 0
FLAG 384 464 0
SYMBOL res 368 -144 R0
SYMATTR InstName Rs
SYMATTR Value 278
SYMBOL res 480 0 R0
SYMATTR InstName Rp
SYMATTR Value 8Meg
SYMBOL voltage 112 -32 R0
WINDOW 123 0 0 Left 0
WINDOW 39 0 0 Left 0
WINDOW 3 61 -107 VRight 2
SYMATTR InstName V
SYMATTR Value PULSE(0 1 0 100n 100n 2u 10u)
SYMBOL Memristor 368 16 R0
SYMATTR InstName U1
SYMBOL cap 608 -48 R0
SYMATTR InstName Cm
SYMATTR Value 10p
SYMBOL cap 368 240 R0
SYMATTR InstName Cgs
SYMATTR Value 100p
SYMBOL nmos4 576 288 R90
SYMATTR InstName M1
SYMBOL voltage 704 320 R0
SYMATTR InstName V1
SYMATTR Value 3
SYMBOL res 688 320 R90
WINDOW 0 0 56 VBottom 2
WINDOW 3 32 56 VTop 2
SYMATTR InstName R1
SYMATTR Value 10
TEXT 312 -192 Left 2 !.param x0=0.1
TEXT -120 512 Left 2 !.model M1 NMOS((LEVEL=3 L=26u W=94u Vto=0.2 Tox=22n TPG=0 Uo=798 THETA=42m PHI=66)
