Version 4
SHEET 1 2344 680
WIRE 384 -160 112 -160
WIRE 608 -160 384 -160
WIRE 1616 -160 1328 -160
WIRE 384 -128 384 -160
WIRE 1328 -64 1328 -160
WIRE 608 -48 608 -160
WIRE 1616 -32 1616 -160
WIRE 112 -16 112 -160
WIRE 384 -16 384 -48
WIRE 496 -16 384 -16
WIRE 1280 0 1232 0
WIRE 384 16 384 -16
WIRE 496 16 496 -16
WIRE 336 64 288 64
WIRE 384 160 384 112
WIRE 496 160 496 96
WIRE 496 160 384 160
WIRE 608 160 608 16
WIRE 608 160 496 160
WIRE 1616 192 1616 48
WIRE 112 208 112 64
WIRE 496 208 496 160
WIRE 496 208 384 208
WIRE 1328 208 1328 64
WIRE 1328 208 1216 208
WIRE 384 240 384 208
WIRE 1216 240 1216 208
WIRE 496 288 496 208
WIRE 1328 288 1328 208
WIRE 384 336 384 304
WIRE 480 336 384 336
WIRE 592 336 576 336
WIRE 704 336 672 336
WIRE 1216 336 1216 304
WIRE 1312 336 1216 336
WIRE 1424 336 1408 336
WIRE 1536 336 1504 336
WIRE 384 432 384 336
WIRE 528 432 528 336
WIRE 528 432 384 432
WIRE 1216 432 1216 336
WIRE 1360 432 1360 336
WIRE 1360 432 1216 432
WIRE 384 464 384 432
WIRE 704 464 704 416
WIRE 1216 464 1216 432
WIRE 1536 464 1536 416
FLAG 112 208 0
FLAG 704 464 0
FLAG 384 464 0
FLAG 288 64 state
FLAG 1616 192 0
FLAG 1536 464 0
FLAG 1216 464 0
FLAG 1232 0 state
SYMBOL voltage 112 -32 R0
WINDOW 123 0 0 Left 0
WINDOW 39 0 0 Left 0
WINDOW 3 61 -107 VRight 2
SYMATTR Value ""
SYMATTR InstName V
SYMBOL cap 368 240 R0
SYMATTR InstName Cgs
SYMATTR Value 100p
SYMBOL nmos4 576 288 R90
SYMATTR InstName M
SYMBOL voltage 704 320 R0
SYMATTR InstName Vd
SYMATTR Value 3
SYMBOL res 688 320 R90
WINDOW 0 0 56 VBottom 2
WINDOW 3 32 56 VTop 2
SYMATTR InstName Rd
SYMATTR Value 10
SYMBOL res 368 -144 R0
SYMATTR InstName Rs
SYMATTR Value 278
SYMBOL res 480 0 R0
SYMATTR InstName Rp
SYMATTR Value 8Meg
SYMBOL Memristor 368 16 R0
SYMATTR InstName U3
SYMBOL cap 592 -48 R0
SYMATTR InstName Cm
SYMATTR Value 10p
SYMBOL voltage 1616 -48 R0
WINDOW 123 0 0 Left 0
WINDOW 39 0 0 Left 0
WINDOW 3 61 -107 VRight 2
SYMATTR Value ""
SYMATTR InstName V
SYMBOL cap 1200 240 R0
SYMATTR InstName Cgs
SYMATTR Value 100p
SYMBOL nmos4 1408 288 R90
SYMATTR InstName M
SYMBOL voltage 1536 320 R0
SYMATTR InstName Vd
SYMATTR Value 3
SYMBOL res 1520 320 R90
WINDOW 0 0 56 VBottom 2
WINDOW 3 32 56 VTop 2
SYMATTR InstName Rd
SYMATTR Value 10
SYMBOL pseudo_memcapacitor 1328 0 R0
SYMATTR InstName U1
TEXT 1184 -560 Left 2 !.param x0=0.1
TEXT 1184 -536 Left 2 !.model M1 NMOS((LEVEL=3 L=26u W=94u Vto=0.2 Tox=22n TPG=0 Uo=798 THETA=42m PHI=66)
