Version 4
SHEET 1 2516 1412
WIRE 864 -208 240 -208
WIRE 1296 -208 864 -208
WIRE 1696 -208 1296 -208
WIRE 240 -192 240 -208
WIRE 240 -80 240 -112
WIRE 864 -64 864 -208
WIRE 1296 -64 1296 -208
WIRE 1696 -64 1696 -208
WIRE 848 96 848 32
WIRE 880 96 880 32
WIRE 960 96 880 96
WIRE 1280 96 1280 32
WIRE 1312 96 1312 32
WIRE 1408 96 1312 96
WIRE 1680 96 1680 32
WIRE 1712 96 1712 32
WIRE 1808 96 1712 96
WIRE 864 208 240 208
WIRE 1296 208 864 208
WIRE 1696 208 1296 208
WIRE 240 240 240 208
WIRE 864 336 864 208
WIRE 1296 336 1296 208
WIRE 1696 336 1696 208
WIRE 240 352 240 320
WIRE 848 512 848 432
WIRE 880 512 880 432
WIRE 960 512 960 96
WIRE 960 512 880 512
WIRE 1280 512 1280 432
WIRE 1312 512 1312 432
WIRE 1408 512 1408 96
WIRE 1408 512 1312 512
WIRE 1680 512 1680 432
WIRE 1712 512 1712 432
WIRE 1808 512 1808 96
WIRE 1808 512 1712 512
WIRE 864 624 240 624
WIRE 1296 624 864 624
WIRE 1696 624 1296 624
WIRE 240 656 240 624
WIRE 1696 736 1696 624
WIRE 864 752 864 624
WIRE 1296 752 1296 624
WIRE 240 768 240 736
WIRE 848 928 848 848
WIRE 880 928 880 848
WIRE 960 928 960 512
WIRE 960 928 880 928
WIRE 1280 928 1280 848
WIRE 1312 928 1312 848
WIRE 1408 928 1408 512
WIRE 1408 928 1312 928
WIRE 1680 928 1680 832
WIRE 1712 928 1712 832
WIRE 1808 928 1808 512
WIRE 1808 928 1712 928
WIRE 960 1152 960 928
WIRE 960 1152 784 1152
WIRE 1408 1152 1408 928
WIRE 1408 1152 1248 1152
WIRE 1808 1152 1808 928
WIRE 1808 1152 1648 1152
WIRE 784 1168 784 1152
WIRE 1248 1168 1248 1152
WIRE 1648 1168 1648 1152
WIRE 960 1184 960 1152
WIRE 1408 1184 1408 1152
WIRE 1808 1184 1808 1152
WIRE 944 1232 784 1232
WIRE 1248 1232 1040 1232
WIRE 1392 1232 1248 1232
WIRE 1648 1232 1488 1232
WIRE 1792 1232 1648 1232
WIRE 1968 1232 1888 1232
WIRE 784 1328 784 1232
WIRE 992 1328 992 1232
WIRE 992 1328 784 1328
WIRE 1440 1328 1440 1232
WIRE 1440 1328 992 1328
WIRE 1840 1328 1840 1232
WIRE 1840 1328 1440 1328
WIRE 784 1376 784 1328
WIRE 1968 1376 1968 1312
FLAG 240 -80 0
FLAG 1968 1376 0
FLAG 848 96 state1
FLAG 1808 1152 Vg3
FLAG 240 -208 Vpulse1
FLAG 848 512 state2
FLAG 848 928 state3
FLAG 240 352 0
FLAG 240 768 0
FLAG 240 208 Vpulse2
FLAG 240 624 Vpulse3
FLAG 784 1376 0
FLAG 1408 1152 Vg2
FLAG 960 1152 Vg1
FLAG 1280 96 state4
FLAG 1280 512 state5
FLAG 1280 928 state6
FLAG 1680 96 state7
FLAG 1680 512 state8
FLAG 1680 928 state7
SYMBOL voltage 240 -208 R0
WINDOW 123 0 0 Left 0
WINDOW 39 0 0 Left 0
SYMATTR InstName Vpulse1
SYMATTR Value PULSE(0 1 0 100n 100n 1u 10u)
SYMBOL voltage 1968 1216 R0
SYMATTR InstName VDD
SYMATTR Value 3
SYMBOL nmos4 1888 1184 R90
SYMATTR InstName M1
SYMBOL cap 1632 1168 R0
WINDOW 0 -32 -1 Left 2
WINDOW 3 -45 50 Left 2
SYMATTR InstName Cgs3
SYMATTR Value 100p
SYMBOL voltage 240 224 R0
SYMATTR InstName Vpulse2
SYMATTR Value PULSE(0 1 0 100n 100n 1u 10u)
SYMBOL voltage 240 640 R0
SYMATTR InstName Vpulse3
SYMATTR Value PULSE(0 1 0 100n 100n 1u 10u)
SYMBOL pseudo_memcapacitor 864 -16 R90
SYMATTR InstName U1
SYMBOL pseudo_memcapacitor 864 384 R90
SYMATTR InstName U2
SYMBOL pseudo_memcapacitor 864 800 R90
SYMATTR InstName U3
SYMBOL pseudo_memcapacitor 1296 -16 R90
SYMATTR InstName U4
SYMBOL pseudo_memcapacitor 1296 384 R90
SYMATTR InstName U5
SYMBOL pseudo_memcapacitor 1296 800 R90
SYMATTR InstName U6
SYMBOL pseudo_memcapacitor 1696 -16 R90
SYMATTR InstName U7
SYMBOL pseudo_memcapacitor 1696 384 R90
SYMATTR InstName U8
SYMBOL pseudo_memcapacitor 1696 784 R90
SYMATTR InstName U9
SYMBOL nmos4 1488 1184 R90
SYMATTR InstName M2
SYMBOL nmos4 1040 1184 R90
SYMATTR InstName M3
SYMBOL cap 1232 1168 R0
SYMATTR InstName Cgs2
SYMATTR Value 100p
SYMBOL cap 768 1168 R0
SYMATTR InstName Cgs1
SYMATTR Value 100p
TEXT 424 968 Left 2 !.tran 1m
TEXT 424 1024 Left 2 !.param x0=0.1
TEXT 432 -328 Left 2 !.model M1 NMOS((LEVEL=3 L=26u W=94u Vto=0.2 Tox=22n TPG=0 Uo=798 THETA=42m PHI=66)\n.model M2 NMOS((LEVEL=3 L=26u W=94u Vto=0.2 Tox=22n TPG=0 Uo=798 THETA=42m PHI=66)\n.model M3 NMOS((LEVEL=3 L=26u W=94u Vto=0.2 Tox=22n TPG=0 Uo=798 THETA=42m PHI=66)
