Version 4
SHEET 1 1936 960
WIRE 704 -176 512 -176
WIRE 416 -160 -208 -160
WIRE -208 -144 -208 -160
WIRE 560 -144 512 -144
WIRE -208 -32 -208 -64
WIRE 704 96 704 -176
WIRE 704 96 512 96
WIRE 416 112 -208 112
WIRE 560 128 512 128
WIRE -208 144 -208 112
WIRE -208 256 -208 224
WIRE 704 384 704 96
WIRE 704 384 512 384
WIRE 416 400 -208 400
WIRE 560 416 512 416
WIRE -208 432 -208 400
WIRE -208 544 -208 512
WIRE 704 576 704 384
WIRE 704 576 544 576
WIRE 544 592 544 576
WIRE 704 608 704 576
WIRE 608 656 544 656
WIRE 688 656 608 656
WIRE 864 656 784 656
WIRE 608 752 608 656
WIRE 736 752 736 656
WIRE 736 752 608 752
WIRE 608 800 608 752
WIRE 864 800 864 736
FLAG -208 -32 0
FLAG 864 800 0
FLAG 608 800 0
FLAG 560 -144 state1
FLAG 704 576 Vg
FLAG -208 -160 Vpulse1
FLAG 560 128 state2
FLAG 560 416 state3
FLAG -208 256 0
FLAG -208 544 0
FLAG -208 112 Vpulse2
FLAG -208 400 Vpulse3
SYMBOL voltage -208 -160 R0
WINDOW 123 0 0 Left 0
WINDOW 39 0 0 Left 0
SYMATTR InstName Vpulse1
SYMATTR Value PULSE(0 1 0 100n 100n 1u 10u)
SYMBOL voltage 864 640 R0
SYMATTR InstName VDD
SYMATTR Value 3
SYMBOL nmos4 784 608 R90
SYMATTR InstName M1
SYMBOL pseudo_memcapacitor 464 -160 R0
SYMATTR InstName U1
SYMBOL cap 528 592 R0
WINDOW 0 -32 -1 Left 2
WINDOW 3 -45 50 Left 2
SYMATTR InstName Cgs
SYMATTR Value 100p
SYMBOL pseudo_memcapacitor 464 112 R0
SYMATTR InstName U2
SYMBOL pseudo_memcapacitor 464 400 R0
SYMATTR InstName U3
SYMBOL voltage -208 128 R0
SYMATTR InstName Vpulse2
SYMATTR Value PULSE(0 1 0 100n 100n 1u 10u)
SYMBOL voltage -208 416 R0
SYMATTR InstName Vpulse3
SYMATTR Value PULSE(0 1 0 100n 100n 1u 10u)
TEXT 128 -256 Left 2 !.tran 1m
TEXT 128 -200 Left 2 !.param x0=0.1
TEXT -216 -320 Left 2 !.model M1 NMOS((LEVEL=3 L=26u W=94u Vto=0.2 Tox=22n TPG=0 Uo=798 THETA=42m PHI=66)
