Version 4
SHEET 1 1936 960
WIRE 704 -176 512 -176
WIRE 416 -160 176 -160
WIRE 608 -144 512 -144
WIRE 176 -112 176 -160
WIRE 608 -64 608 -144
WIRE 704 16 704 -176
WIRE 704 16 544 16
WIRE 544 32 544 16
WIRE 704 48 704 16
WIRE 608 96 544 96
WIRE 688 96 608 96
WIRE 832 96 784 96
WIRE 992 96 912 96
WIRE 176 112 176 -32
WIRE 608 192 608 96
WIRE 736 192 736 96
WIRE 736 192 608 192
WIRE 608 240 608 192
WIRE 992 240 992 176
FLAG 176 112 0
FLAG 992 240 0
FLAG 608 240 0
FLAG 608 -64 state
FLAG 704 16 Vg
FLAG 176 -160 Vpulse
SYMBOL voltage 176 -128 R0
WINDOW 123 0 0 Left 0
WINDOW 39 0 0 Left 0
SYMATTR InstName Vpulse
SYMATTR Value PULSE(0 1 0 100n 100n 1u 10u)
SYMBOL voltage 992 80 R0
SYMATTR InstName VDD
SYMATTR Value 3
SYMBOL nmos4 784 48 R90
SYMATTR InstName M1
SYMBOL pseudo_memcapacitor 464 -160 R0
SYMATTR InstName U1
SYMBOL cap 528 32 R0
WINDOW 0 -32 -1 Left 2
WINDOW 3 -45 50 Left 2
SYMATTR InstName Cgs
SYMATTR Value 100p
SYMBOL res 928 80 R90
WINDOW 0 0 56 VBottom 2
WINDOW 3 32 56 VTop 2
SYMATTR InstName R1
SYMATTR Value 10
TEXT 768 -120 Left 2 !.tran 2m
TEXT 768 -160 Left 2 !.param x0=0.284
TEXT 16 288 Left 2 !.model M1 NMOS((LEVEL=3 L=26u W=94u Vto=0.2 Tox=22n TPG=0 Uo=798 THETA=42m PHI=66)
