Version 4
SHEET 1 1464 960
WIRE 448 -160 -208 -160
WIRE -208 -32 -208 -160
WIRE 688 -16 576 -16
WIRE 448 0 448 -160
WIRE 480 0 448 0
WIRE 752 16 576 16
WIRE 688 128 688 -16
WIRE 688 128 528 128
WIRE -208 192 -208 48
WIRE 528 224 528 128
WIRE 512 272 432 272
WIRE 640 272 608 272
WIRE 784 272 720 272
WIRE 432 368 432 272
WIRE 560 368 560 272
WIRE 560 368 432 368
WIRE 432 416 432 368
WIRE 784 416 784 352
FLAG -208 192 0
FLAG 784 416 0
FLAG 432 416 0
FLAG 752 16 state
SYMBOL voltage -208 -48 R0
WINDOW 123 0 0 Left 0
WINDOW 39 0 0 Left 0
SYMATTR InstName V
SYMATTR Value SINE(0 3 0.02 0)
SYMBOL voltage 784 256 R0
SYMATTR InstName VDD
SYMATTR Value 3
SYMBOL res 736 256 R90
WINDOW 0 0 56 VBottom 2
WINDOW 3 32 56 VTop 2
SYMATTR InstName Rd
SYMATTR Value 10
SYMBOL nmos4 608 224 R90
SYMATTR InstName M1
SYMBOL pseudo_memcapacitor 528 0 R0
SYMATTR InstName U1
TEXT -88 -200 Left 2 !.tran 50
TEXT 128 -200 Left 2 !.param x0=0.1
TEXT 776 -144 Left 2 !.model M1 NMOS(LEVEL=3 L=1u W=4u Vto=0.45 Tox=12n\n+Uo=798 PHI=66)
